<?xml version="1.0" encoding="UTF-8"?>

<!-- generated on 07/17/25 13:27:59 by Eclipse SUMO polyconvert Version 1.8.0
<configuration xmlns:xsi="http://www.w3.org/2001/XMLSchema-instance" xsi:noNamespaceSchemaLocation="http://sumo.dlr.de/xsd/polyconvertConfiguration.xsd">

    <input>
        <net-file value="Delhi2.net.xml"/>
        <osm-files value="Delhi2.osm.xml"/>
    </input>

    <output>
        <output-file value="Delhi2.poly.xml"/>
    </output>

    <processing>
        <poi-layer-offset value="5"/>
    </processing>

</configuration>
-->

<additional xmlns:xsi="http://www.w3.org/2001/XMLSchema-instance" xsi:noNamespaceSchemaLocation="http://sumo.dlr.de/xsd/additional_file.xsd">
    <location netOffset="-712006.90,-3169883.57" convBoundary="-20996.26,-6043.67,8868.24,87644.11" origBoundary="76.968498,28.583041,77.258488,29.432571" projParameter="+proj=utm +zone=43 +ellps=WGS84 +datum=WGS84 +units=m +no_defs"/>

    <poly id="103850013" type="building" color="255,230,230" fill="1" layer="-1.00" shape="6130.733768,3239.515286 6134.253421,3233.272573 6139.463544,3233.369999 6142.689741,3230.270520 6148.341023,3230.830768 6151.912865,3233.824543 6152.517118,3238.115442 6156.313577,3241.124505 6160.385643,3241.422399 6165.621051,3240.167690 6169.050938,3238.202906 6172.635418,3240.520614 6173.913936,3244.835212 6171.532319,3250.877458 6168.493221,3255.998270 6164.519549,3262.465311 6159.445760,3267.104591 6153.577960,3266.096805 6152.082901,3261.334679 6151.470360,3257.487106 6148.128981,3254.719382 6143.830817,3253.962696 6140.409436,3255.473076 6136.778532,3255.638008 6133.657832,3253.096155 6131.665409,3250.353660 6134.042859,3244.533071 6130.733768,3239.515286"/>
    <poly id="103850013#1" type="tourism" color="207,245,201" fill="1" layer="-2.00" shape="6130.733768,3239.515286 6134.253421,3233.272573 6139.463544,3233.369999 6142.689741,3230.270520 6148.341023,3230.830768 6151.912865,3233.824543 6152.517118,3238.115442 6156.313577,3241.124505 6160.385643,3241.422399 6165.621051,3240.167690 6169.050938,3238.202906 6172.635418,3240.520614 6173.913936,3244.835212 6171.532319,3250.877458 6168.493221,3255.998270 6164.519549,3262.465311 6159.445760,3267.104591 6153.577960,3266.096805 6152.082901,3261.334679 6151.470360,3257.487106 6148.128981,3254.719382 6143.830817,3253.962696 6140.409436,3255.473076 6136.778532,3255.638008 6133.657832,3253.096155 6131.665409,3250.353660 6134.042859,3244.533071 6130.733768,3239.515286"/>
    <poly id="1094434814" type="building" color="255,230,230" fill="1" layer="-1.00" shape="6322.630953,2355.087858 6328.374791,2355.428149 6329.052222,2344.309432 6323.308586,2343.958058 6322.630953,2355.087858"/>
    <poly id="1094434921" type="building" color="255,230,230" fill="1" layer="-1.00" shape="4776.229547,2097.014375 4791.940557,2098.304039 4793.427858,2080.359769 4777.717029,2079.059022 4776.229547,2097.014375"/>
    <poly id="1094434922" type="building" color="255,230,230" fill="1" layer="-1.00" shape="4244.672166,1948.300823 4250.708762,1946.572251 4247.906539,1936.830400 4241.860369,1938.547709 4244.672166,1948.300823"/>
    <poly id="1112000383" type="building" color="255,230,230" fill="1" layer="-1.00" shape="2583.305281,2559.404665 2583.373788,2554.084280 2581.379387,2554.058690 2581.437906,2549.281372 2584.439386,2549.314397 2584.482204,2545.922636 2581.480723,2545.889611 2581.527632,2541.211862 2583.522239,2541.226369 2583.575255,2536.748293 2604.047577,2536.991760 2603.937256,2545.648491 2606.319213,2545.869688 2604.638309,2553.787981 2603.849553,2553.607172 2603.777563,2559.648133 2583.305281,2559.404665"/>
    <poly id="1112000764" type="building" color="255,230,230" fill="1" layer="-1.00" shape="2604.563465,2559.984104 2606.907833,2554.805357 2604.638309,2553.787981 2606.319213,2545.869688 2610.496180,2546.855627 2613.697163,2539.763540 2615.210316,2540.434404 2615.801756,2539.114870 2619.051063,2540.560480 2618.663694,2541.418123 2627.053236,2545.175634 2627.440606,2544.317992 2630.651013,2545.751803 2630.131465,2546.884183 2632.818072,2548.086625 2631.309325,2551.429248 2632.822068,2552.122280 2626.715409,2565.136680 2625.386771,2564.535730 2623.592899,2568.493968 2604.563465,2559.984104"/>
    <poly id="1112001602" type="building" color="255,230,230" fill="1" layer="-1.00" shape="2648.520216,2574.806315 2649.897526,2575.419251 2648.123605,2579.355679 2666.542429,2587.566130 2668.296192,2583.662593 2668.984744,2583.974604 2670.839933,2579.873371 2668.560644,2578.855802 2669.784267,2576.128796 2672.063557,2577.146366 2675.081477,2570.438962 2674.470516,2570.161639 2675.622655,2567.599620 2673.314241,2566.570427 2673.986949,2565.086090 2670.689185,2563.617398 2670.352729,2564.365108 2662.186010,2560.722530 2662.522465,2559.974820 2659.117984,2558.459822 2658.404136,2560.054270 2657.473031,2559.638018 2656.219267,2562.408817 2654.453996,2561.622443 2648.520216,2574.806315"/>
    <poly id="1112001603" type="building" color="255,230,230" fill="1" layer="-1.00" shape="2627.007769,2569.975887 2628.822415,2565.951510 2626.715409,2565.136680 2632.822068,2552.122280 2634.674506,2552.954602 2636.887119,2548.028432 2641.445714,2550.063558 2640.834312,2551.404897 2648.331837,2554.746892 2648.933464,2553.405374 2652.842399,2555.140298 2652.077636,2556.844678 2654.366502,2557.873506 2652.969970,2560.963196 2654.453996,2561.622443 2648.520216,2574.806315 2647.036192,2574.147069 2645.251885,2578.116568 2627.007769,2569.975887"/>
    <poly id="1112010278" type="building" color="255,230,230" fill="1" layer="-1.00" shape="2606.728125,2523.105002 2607.100957,2514.530706 2609.924857,2514.649164 2610.132057,2509.763713 2607.308157,2509.645255 2607.664487,2501.436519 2609.833633,2501.531848 2609.904738,2499.792535 2613.705582,2499.962222 2613.634680,2501.690452 2622.340591,2502.072314 2622.408233,2500.521412 2626.736954,2500.700813 2626.669312,2502.251715 2628.828683,2502.346868 2628.571559,2508.351163 2632.313950,2508.508695 2632.571077,2502.504399 2633.479792,2502.543288 2633.547435,2500.992385 2637.280054,2501.149739 2637.212206,2502.711724 2645.928097,2503.082701 2645.996354,2501.498549 2649.797401,2501.657165 2649.728940,2503.252400 2653.080517,2503.391662 2652.858222,2508.565091 2655.740572,2508.695722 2655.972644,2503.522473 2657.076870,2503.564960 2657.110285,2502.811674 2660.246800,2502.946982 2660.213385,2503.700268 2681.670642,2504.627191 2681.429587,2510.288093 2674.032988,2509.963535 2673.868760,2513.574799 2681.265358,2513.899357 2681.039176,2519.283364 2672.802092,2518.932257 2672.649476,2522.443954 2680.886557,2522.795062 2680.599251,2529.375315 2671.052869,2528.966858 2670.904739,2532.234729 2669.341475,2532.161622 2669.559903,2527.198769 2654.815400,2526.561654 2654.934596,2523.803242 2651.456147,2523.650558 2651.336952,2526.408970 2648.200443,2526.273664 2648.153175,2527.248430 2644.821157,2527.109529 2644.872502,2525.913103 2635.296792,2525.504136 2635.245855,2526.678396 2632.558816,2526.562449 2632.605879,2525.598766 2630.632043,2525.518112 2630.948861,2518.395151 2628.515983,2518.283880 2628.208738,2525.418104 2625.394820,2525.288738 2625.359980,2526.119604 2621.490717,2525.948654 2621.555300,2524.563997 2612.380182,2524.173504 2612.295223,2526.134298 2608.494185,2525.975694 2608.613777,2523.195117 2606.728125,2523.105002"/>
    <poly id="1112011037" type="building" color="255,230,230" fill="1" layer="-1.00" shape="2719.931249,2558.514419 2713.238718,2558.191703 2713.285583,2557.239103 2701.825269,2556.684533 2701.778404,2557.637133 2693.630142,2557.243295 2693.352629,2562.759400 2691.779797,2562.675026 2691.575022,2566.895317 2698.384649,2567.231262 2698.020733,2574.785742 2691.015601,2574.446200 2690.766612,2579.475011 2692.613154,2579.564421 2692.406746,2583.873376 2703.192935,2584.393361 2703.462514,2578.777329 2705.015996,2578.850262 2704.528598,2588.863733 2706.551097,2588.956383 2706.310245,2594.074038 2717.164649,2594.606379 2717.419360,2589.267243 2721.747438,2589.479930 2721.492725,2594.819066 2728.703130,2595.162406 2728.940525,2590.233161 2732.408974,2590.396773 2732.171579,2595.326017 2736.626735,2595.541049 2736.688886,2594.289387 2757.518721,2595.293611 2757.456364,2596.556355 2761.970173,2596.772476 2762.171915,2592.718430 2766.236259,2592.915193 2766.034516,2596.969239 2772.980984,2597.307748 2773.221049,2592.234424 2776.503765,2592.394629 2776.342973,2595.817483 2780.153358,2595.998490 2780.013764,2598.800874 2790.877942,2599.333464 2791.379679,2589.076345 2801.599093,2589.574902 2801.915184,2583.028436 2796.316905,2582.759076 2797.305919,2562.499569 2788.131844,2562.053521 2788.085381,2562.983955 2780.533016,2562.623199 2780.109953,2571.263096 2781.751212,2571.348741 2781.515020,2576.211487 2777.704628,2576.030481 2777.604970,2578.257088 2773.667702,2578.062661 2773.776930,2575.847316 2768.208178,2575.567427 2768.065324,2578.547139 2761.578088,2578.228174 2761.857266,2572.623405 2740.597677,2571.589094 2740.687129,2569.916638 2719.427537,2568.882366 2719.931249,2558.514419"/>
    <poly id="1112011687" type="building" color="255,230,230" fill="1" layer="-1.00" shape="2694.996280,2539.862206 2695.461224,2531.600032 2702.817077,2532.012549 2703.385326,2521.856439 2696.029467,2521.443922 2696.449994,2514.001352 2707.713412,2514.629897 2708.207704,2505.836099 2722.401748,2506.629451 2722.125868,2511.524727 2726.365587,2511.757961 2726.492726,2509.631641 2731.855815,2509.929897 2731.738451,2512.056397 2738.762153,2512.451736 2739.009311,2508.054837 2765.238432,2509.524291 2764.946639,2514.751877 2771.794585,2515.132915 2771.968602,2512.053995 2777.614976,2512.368573 2777.440958,2515.447493 2785.031434,2515.864380 2785.392311,2509.540474 2795.776551,2510.119662 2795.283417,2518.846963 2800.001727,2519.111207 2798.885240,2538.858375 2804.345868,2539.169548 2803.953391,2546.146992 2801.423171,2546.011719 2801.339627,2547.362768 2788.620709,2546.651902 2788.704252,2545.300853 2781.612140,2544.904223 2782.225698,2533.884176 2775.407090,2533.503671 2775.308877,2535.120532 2769.828494,2534.820097 2769.917134,2533.191973 2730.744296,2531.007566 2730.598407,2533.621359 2722.529555,2533.162443 2722.065612,2541.369202 2713.635072,2540.903636 2713.592082,2541.645659 2701.410405,2540.966949 2701.453395,2540.224926 2694.996280,2539.862206"/>
    <poly id="1161756183" type="building" color="255,230,230" fill="1" layer="-1.00" shape="3914.755942,3256.118847 3912.981514,3250.553655 3900.765733,3254.396442 3902.540166,3259.961632 3914.755942,3256.118847"/>
    <poly id="1161756184" type="tourism" color="207,245,201" fill="1" layer="-2.00" shape="3912.981514,3250.553655 3914.755942,3256.118847 3902.540166,3259.961632 3900.765733,3254.396442 3896.662478,3260.540234 3894.370053,3266.584499 3893.401555,3272.420443 3894.661672,3278.829802 3896.856150,3284.946022 3900.434704,3290.245258 3904.225645,3294.107132 3908.093838,3295.908279 3912.005510,3296.945238 3916.865082,3296.957578 3922.033565,3295.600865 4025.281622,3265.016798 4029.612773,3263.467234 4032.643266,3260.341421 4034.618835,3256.098471 4038.344229,3249.770333 4039.307979,3242.082799 4036.508670,3232.196893 4029.398845,3227.497431 4021.684224,3225.358930 4013.845300,3225.180510 3912.981514,3250.553655"/>
    <poly id="1161756188" type="amenity" color="237,199,199" fill="1" layer="-1.00" shape="3125.113465,4072.420529 3128.556324,4013.524305 3081.500214,4019.696487 3076.939428,4081.964656 3125.113465,4072.420529"/>
    <poly id="1162855908" type="building" color="255,230,230" fill="1" layer="-1.00" shape="6433.454998,1384.938965 6428.201082,1448.812852 6440.104657,1449.789514 6445.348862,1385.915445 6433.454998,1384.938965"/>
    <poly id="1162855909" type="building" color="255,230,230" fill="1" layer="-1.00" shape="6409.686946,1442.047041 6421.229415,1442.983665 6427.155952,1370.862524 6415.613411,1369.925898 6409.686946,1442.047041"/>
    <poly id="1162855910" type="building" color="255,230,230" fill="1" layer="-1.00" shape="6458.251567,1517.460695 6455.667668,1548.921705 6467.092713,1549.856186 6469.676850,1518.384094 6458.251567,1517.460695"/>
    <poly id="1162855911" type="building" color="255,230,230" fill="1" layer="-1.00" shape="6449.939844,1548.226898 6452.487760,1517.120000 6439.519855,1516.056881 6436.971974,1547.163779 6449.939844,1548.226898"/>
    <poly id="1162855912" type="building" color="255,230,230" fill="1" layer="-1.00" shape="6417.826438,1546.971826 6430.833414,1548.035655 6437.573003,1465.918126 6424.565727,1464.865379 6417.826438,1546.971826"/>
    <poly id="1162855913" type="building" color="255,230,230" fill="1" layer="-1.00" shape="6429.545882,1635.654602 6437.455469,1636.301535 6444.129433,1555.080822 6436.210014,1554.433705 6429.545882,1635.654602"/>
    <poly id="1162855914" type="building" color="255,230,230" fill="1" layer="-1.00" shape="6421.639425,1553.307350 6434.363290,1554.343712 6426.839832,1645.948171 6438.743204,1646.924844 6446.266964,1555.309303 6461.676257,1556.562257 6453.187629,1660.011787 6413.151361,1656.745803 6421.639425,1553.307350"/>
    <poly id="1162855915" type="amenity" color="237,199,199" fill="1" layer="-1.00" shape="6619.545563,1575.283701 6620.620970,1559.116745 6527.919916,1550.595642 6536.649174,1476.642166 6719.264162,1492.690538 6731.804757,1477.414721 6583.107752,1463.919300 6432.234493,1449.642243 6395.083370,1444.767314 6393.529251,1457.787677 6506.380716,1468.769181 6502.163479,1539.935577 6488.534971,1539.159386 6487.259444,1551.397780 6473.635721,1550.366692 6462.102257,1675.933318 6492.995853,1679.117027 6489.838652,1707.762287 6503.452232,1709.325398 6519.497709,1566.880060 6569.802732,1570.172354 6619.545563,1575.283701"/>
    <poly id="1163085938" type="landuse" color="194,194,130" fill="1" layer="-3.00" shape="3794.310491,3693.550913 3797.493769,3628.252712 3699.327504,3617.955437 3690.429159,3674.023443 3718.587585,3675.719413 3718.328874,3696.580107 3740.137857,3694.766119 3794.310491,3693.550913"/>
    <poly id="1181147178" type="amenity" color="237,199,199" fill="1" layer="-1.00" shape="5996.871982,2135.350965 5996.011818,2120.145689 5978.848999,2121.188811 5979.419425,2136.200194 5996.871982,2135.350965"/>
    <poly id="1189317931" type="water" color="181,209,209" fill="1" layer="-4.00" shape="4435.292832,3943.918656 4446.079715,3937.488869 4462.338322,3947.070386 4482.613974,3931.980474 4473.986363,3894.246736 4461.535261,3894.459109 4455.001870,3887.707868 4445.096185,3894.597482 4445.837973,3902.571660 4438.966940,3913.486717 4424.175621,3920.729153 4435.292832,3943.918656"/>
    <poly id="1189317932" type="water" color="181,209,209" fill="1" layer="-4.00" shape="4420.514400,3806.621143 4397.870850,3758.028327 4402.447924,3750.596321 4411.838462,3747.233833 4424.191205,3752.330204 4433.524368,3752.059919 4436.329313,3768.465178 4419.276525,3777.428487 4427.823318,3801.091355 4420.514400,3806.621143"/>
    <poly id="1189317933" type="water" color="181,209,209" fill="1" layer="-4.00" shape="5614.631017,4027.974519 5612.698289,4020.986896 5635.440298,4012.142536 5637.688632,4016.364299 5632.164183,4017.935343 5633.365468,4022.725178 5614.631017,4027.974519"/>
    <poly id="1194095930" type="building" color="255,230,230" fill="1" layer="-1.00" shape="4967.312023,2151.520825 4967.841277,2136.729607 4990.995620,2139.000537 4990.069760,2153.030470 4967.312023,2151.520825"/>
    <poly id="1194095930#1" type="shop" color="237,199,255" fill="1" layer="-1.00" shape="4967.312023,2151.520825 4967.841277,2136.729607 4990.995620,2139.000537 4990.069760,2153.030470 4967.312023,2151.520825"/>
    <poly id="1208698381" type="building" color="255,230,230" fill="1" layer="-1.00" shape="3654.716353,2143.256245 3652.060647,2134.559440 3667.490354,2129.899845 3670.146050,2138.596655 3654.716353,2143.256245"/>
    <poly id="1234857683" type="building" color="255,230,230" fill="1" layer="-1.00" shape="3020.330109,3150.438043 3007.676150,3154.196063 3009.168799,3159.157201 2990.536940,3164.689818 2993.208048,3170.437661 2990.801711,3171.546340 2993.849313,3178.088285 3022.548892,3170.645834 3021.022697,3164.852565 3017.790180,3165.691015 3016.839767,3162.081374 3018.745920,3161.584341 3019.138463,3163.099381 3021.742113,3162.426729 3023.642117,3169.690346 3027.896338,3168.593560 3027.156863,3165.741708 3032.708126,3164.302967 3031.356832,3159.100522 3026.139550,3160.456725 3023.746629,3151.288179 3020.750138,3152.053371 3020.330109,3150.438043"/>
    <poly id="1234857684" type="commercial" color="209,209,204" fill="1" layer="-3.00" shape="2971.371206,3149.846176 2991.267377,3183.949966 3021.062861,3181.771767 3044.238001,3176.965984 3025.086018,3136.977631 2971.371206,3149.846176"/>
    <poly id="1236881255" type="amenity" color="237,199,199" fill="1" layer="-1.00" shape="6465.570405,2969.513639 6458.707022,3091.642176 6565.525651,3187.339803 6703.264747,3060.701284 6601.926429,2940.236798 6569.069466,2962.693395 6527.884064,2913.992488 6465.570405,2969.513639"/>
    <poly id="1239351250" type="building" color="255,230,230" fill="1" layer="-1.00" shape="5841.986167,3391.810322 5844.448177,3384.594301 5878.748597,3396.222165 5876.464379,3403.341718 5841.986167,3391.810322"/>
    <poly id="1239351253" type="building" color="255,230,230" fill="1" layer="-1.00" shape="5838.970662,3449.085002 5851.068144,3415.484423 5837.867435,3410.769822 5832.048888,3408.698760 5841.228051,3382.139368 5846.658303,3384.059051 5858.227406,3388.177748 5863.534214,3374.717432 5851.188069,3370.318130 5843.893230,3367.709490 5830.692463,3362.994901 5804.473998,3436.976838 5818.241631,3441.701989 5825.439506,3444.264458 5838.970662,3449.085002"/>
    <poly id="1253504749" type="building" color="255,230,230" fill="1" layer="-1.00" shape="3482.255057,1117.932939 3484.845944,1127.515412 3480.924373,1128.562797 3482.846766,1135.682748 3516.372307,1126.700419 3518.789681,1135.614491 3483.399106,1143.908266 3481.279832,1151.164267 3483.917137,1160.880640 3492.647688,1158.924209 3516.305808,1152.553627 3518.705463,1161.367591 3498.153158,1166.908553 3500.883345,1176.360562 3504.579617,1177.980946 3503.551513,1201.887299 3504.610169,1202.815960 3512.491541,1203.416010 3511.927709,1206.410127 3521.677967,1208.020324 3529.273589,1147.815048 3537.697219,1148.181214 3535.664747,1140.139014 3533.168647,1130.192411 3531.797782,1123.925229 3537.763150,1122.361252 3534.090443,1106.749741 3482.255057,1117.932939"/>
    <poly id="1259685055" type="residential" color="235,235,227" fill="1" layer="-3.00" shape="6435.319305,2322.072920 6559.287174,2341.623363 6563.251549,2252.136340 6563.730439,2072.002788 6475.108018,2072.028659 6435.319305,2322.072920"/>
    <poly id="1259685056" type="residential" color="235,235,227" fill="1" layer="-3.00" shape="6416.849127,2037.144875 6570.222742,2028.208544 6561.490795,1880.354360 6408.115268,1889.290926 6416.849127,2037.144875"/>
    <poly id="1259685057" type="residential" color="235,235,227" fill="1" layer="-3.00" shape="5425.875697,829.897297 6008.403789,548.450956 6310.923287,441.159395 6508.441719,393.919818 6888.154012,364.853835 6927.113678,344.917868 6990.829292,350.536240 6940.848431,1195.542140 6536.922824,1369.557530 6187.032977,1352.679555 6168.740244,1537.612794 6276.199225,1544.045442 6280.475698,1672.557535 6326.645088,1702.945792 6389.347931,1722.567639 6395.238197,2042.272883 5718.234686,2062.097490 5345.589946,2073.611443 5287.157354,2063.664893 5254.596182,2139.081961 4828.615718,2106.058840 4910.196491,1588.706724 5347.211103,950.233860 5443.983970,893.718398 5425.875697,829.897297"/>
    <poly id="1271652704" type="building" color="255,230,230" fill="1" layer="-1.00" shape="3032.869714,1114.347931 3047.119109,1103.734274 3025.438672,1077.081471 3011.842759,1085.667224 3032.869714,1114.347931"/>
    <poly id="1274310245" type="tourism" color="207,245,201" fill="1" layer="-2.00" shape="3703.885359,2814.076393 3682.714358,2794.515844 3658.832117,2772.443945 3657.879458,2792.770697 3657.165409,2808.123866 3670.930520,2809.886119 3675.340154,2810.444367 3703.885359,2814.076393"/>
    <poly id="1274310246" type="leisure" color="207,245,201" fill="1" layer="-2.00" shape="3703.885359,2814.076393 3675.340154,2810.444367 3682.714358,2794.515844 3703.885359,2814.076393"/>
    <poly id="1274310249" type="leisure" color="207,245,201" fill="1" layer="-2.00" shape="3657.165409,2808.123866 3670.930520,2809.886119 3676.465052,2798.258543 3657.879458,2792.770697 3657.165409,2808.123866"/>
    <poly id="1274310250" type="amenity" color="237,199,199" fill="1" layer="-1.00" shape="3618.707205,2769.429547 3657.018147,2772.709760 3654.848312,2811.274048 3615.978107,2807.573283 3618.707205,2769.429547"/>
    <poly id="1274531605" type="leisure" color="207,245,201" fill="1" layer="-2.00" shape="3806.892091,3411.478760 3814.732237,3401.013681 3797.803980,3388.449507 3789.954067,3398.914416 3806.892091,3411.478760"/>
    <poly id="1274531606" type="tourism" color="207,245,201" fill="1" layer="-2.00" shape="3758.838005,3437.608497 3862.361675,3508.805700 3877.732092,3479.787555 3896.849711,3466.504534 3902.623244,3317.814467 3875.608220,3316.106022 3797.029294,3383.811953 3766.729138,3424.383704 3758.838005,3437.608497"/>
    <poly id="1276345817" type="building" color="255,230,230" fill="1" layer="-1.00" shape="3858.273961,3231.946345 3860.714425,3230.583472 3852.808332,3204.970644 3848.619028,3207.310065 3844.983073,3209.338207 3858.273961,3231.946345"/>
    <poly id="1276348161" type="building" color="255,230,230" fill="1" layer="-1.00" shape="3322.607509,2269.788648 3320.308488,2268.249508 3335.122133,2227.002740 3348.180743,2232.642987 3339.717368,2258.851250 3322.607509,2269.788648"/>
    <poly id="1279571226" type="building" color="255,230,230" fill="1" layer="-1.00" shape="3845.846484,3201.781853 3841.618081,3202.535131 3844.983073,3209.338207 3848.619028,3207.310065 3845.846484,3201.781853"/>
    <poly id="1279571227" type="building" color="255,230,230" fill="1" layer="-1.00" shape="3848.619028,3207.310065 3852.808332,3204.970644 3850.908635,3200.888787 3845.846484,3201.781853 3848.619028,3207.310065"/>
    <poly id="1287281761" type="leisure" color="207,245,201" fill="1" layer="-2.00" shape="5674.160341,2536.995997 5730.397881,2534.996309 5729.997056,2538.658626 5724.926098,2547.333822 5717.704621,2551.245832 5703.629110,2552.479955 5687.910561,2552.674525 5680.719802,2550.223194 5675.560074,2545.836270 5674.160341,2536.995997"/>
    <poly id="1287281763" type="parking" color="184,184,179" fill="1" layer="-1.00" shape="5671.223542,2535.588598 5670.719308,2516.487386 5740.076724,2514.688139 5740.580432,2533.811528 5671.223542,2535.588598"/>
    <poly id="1287299123" type="building" color="255,230,230" fill="1" layer="-1.00" shape="5561.709739,2573.780857 5560.981419,2552.003521 5631.687739,2549.696625 5632.118747,2562.765141 5636.786062,2562.619367 5636.282816,2547.132539 5652.124669,2546.618676 5652.615785,2561.706149 5661.644532,2569.424810 5691.875550,2568.159424 5691.541491,2560.381206 5710.126509,2559.597078 5710.467642,2567.519560 5741.677277,2566.217125 5748.968716,2559.080119 5748.536061,2542.962631 5764.943684,2542.526000 5765.566533,2565.742721 5771.877193,2565.572236 5771.228546,2542.166553 5853.492588,2539.932568 5853.349639,2535.018353 5859.357276,2534.842256 5859.218932,2530.205303 5895.794108,2529.081059 5895.890499,2532.298092 5901.937863,2532.089498 5902.498634,2548.142878 5895.345388,2548.397343 5895.843131,2562.065837 5853.383588,2563.579124 5853.735170,2573.031821 5787.045998,2575.445606 5787.474188,2587.083867 5732.351698,2589.081894 5732.550714,2594.662369 5681.167326,2596.475406 5681.001862,2591.715997 5611.614847,2594.080442 5611.202874,2582.087720 5631.869013,2581.397719 5631.535503,2571.490813 5561.709739,2573.780857"/>
    <poly id="1287299141" type="building" color="255,230,230" fill="1" layer="-1.00" shape="5095.095147,2669.972525 5097.514370,2677.124275 5129.987661,2662.539402 5193.549561,2644.730442 5219.308399,2638.890387 5274.448560,2627.510723 5341.111533,2613.341370 5391.829905,2602.068356 5417.994450,2597.034545 5445.764144,2594.026360 5496.822968,2592.306024 5515.043101,2591.681094 5519.945014,2591.539648 5585.539316,2589.613936 5610.636266,2588.873479 5610.401468,2578.391893 5548.176715,2580.014423 5448.331010,2583.275478 5418.402604,2586.675827 5369.028406,2596.654424 5269.151603,2618.409473 5175.973921,2638.582641 5146.386604,2646.790670 5119.680597,2656.238690 5095.793868,2669.209439 5095.095147,2669.972525"/>
    <poly id="1287300774" type="building" color="255,230,230" fill="1" layer="-1.00" shape="5208.752322,2698.496947 5208.995001,2680.207977 5328.947188,2676.831614 5329.702588,2694.551578 5208.752322,2698.496947"/>
    <poly id="1290292836" type="building" color="255,230,230" fill="1" layer="-1.00" shape="3055.468842,1290.212396 3048.085468,1276.916380 3038.274850,1282.301221 3041.986379,1289.465125 3043.428317,1291.886430 3045.387753,1295.414859 3055.468842,1290.212396"/>
    <poly id="1290292838" type="amenity" color="237,199,199" fill="1" layer="-1.00" shape="3043.428317,1291.886430 3042.014549,1292.714068 3040.572611,1290.292764 3041.986379,1289.465125 3043.428317,1291.886430"/>
    <poly id="1296987815" type="building" color="255,230,230" fill="1" layer="-1.00" shape="5805.033498,3403.870357 5809.610780,3407.481497 5814.617450,3401.188862 5810.030392,3397.577537 5805.033498,3403.870357"/>
    <poly id="1301985790" type="building" color="255,230,230" fill="1" layer="-1.00" shape="6168.473989,2095.983510 6209.070377,2093.793342 6207.610850,2067.245879 6167.014370,2069.436057 6168.473989,2095.983510"/>
    <poly id="1304961958" type="building" color="255,230,230" fill="1" layer="-1.00" shape="3230.523338,2169.284319 3237.928836,2164.897485 3233.204372,2157.005241 3225.798872,2161.392078 3226.263785,2162.165641 3230.523338,2169.284319"/>
    <poly id="1304962750" type="building" color="255,230,230" fill="1" layer="-1.00" shape="3236.383528,2187.707799 3247.565695,2181.095660 3242.728024,2172.979586 3231.536281,2179.580467 3236.383528,2187.707799"/>
    <poly id="1304963119" type="building" color="255,230,230" fill="1" layer="-1.00" shape="3264.418260,2209.555910 3253.297625,2216.013951 3257.895780,2223.859530 3269.026392,2217.390591 3264.418260,2209.555910"/>
    <poly id="1304963120" type="building" color="255,230,230" fill="1" layer="-1.00" shape="3260.120458,2202.392164 3255.265093,2194.175975 3244.440177,2200.506439 3249.295545,2208.722622 3260.120458,2202.392164"/>
    <poly id="1304963391" type="building" color="255,230,230" fill="1" layer="-1.00" shape="3246.644084,2163.727813 3247.607321,2165.053822 3249.797422,2163.486631 3248.824409,2162.160441 3246.644084,2163.727813"/>
    <poly id="1304963392" type="building" color="255,230,230" fill="1" layer="-1.00" shape="3255.275082,2179.319841 3256.873635,2182.254070 3260.103447,2180.517583 3258.514670,2177.583534 3255.275082,2179.319841"/>
    <poly id="1304966200" type="building" color="255,230,230" fill="1" layer="-1.00" shape="3237.529731,2133.514472 3226.676672,2139.777916 3231.141696,2147.421462 3241.984976,2141.157843 3237.529731,2133.514472"/>
    <poly id="1304966739" type="building" color="255,230,230" fill="1" layer="-1.00" shape="3237.591518,2123.271407 3241.571057,2130.196447 3253.924581,2123.173529 3249.935270,2116.248303 3238.243880,2122.895400 3237.591518,2123.271407"/>
    <poly id="1304967129" type="building" color="255,230,230" fill="1" layer="-1.00" shape="3250.575172,2146.238823 3262.763314,2139.168517 3258.174899,2131.323119 3245.976977,2138.393249 3250.575172,2146.238823"/>
    <poly id="1304967709" type="building" color="255,230,230" fill="1" layer="-1.00" shape="3272.131758,2155.073504 3267.511779,2147.349474 3257.051383,2153.531438 3261.661589,2161.255283 3272.131758,2155.073504"/>
    <poly id="1304968475" type="building" color="255,230,230" fill="1" layer="-1.00" shape="3284.223493,2208.890185 3271.716241,2216.298269 3280.019564,2230.564948 3286.569953,2213.689713 3284.223493,2208.890185"/>
    <poly id="1304968476" type="building" color="255,230,230" fill="1" layer="-1.00" shape="3283.594199,2208.545971 3279.049801,2200.967457 3267.896959,2207.580107 3272.431585,2215.158437 3283.594199,2208.545971"/>
    <poly id="1304970456" type="building" color="255,230,230" fill="1" layer="-1.00" shape="3309.673663,2194.314915 3314.109888,2182.844309 3303.137023,2178.639524 3298.700807,2190.110133 3309.673663,2194.314915"/>
    <poly id="1304971728" type="building" color="255,230,230" fill="1" layer="-1.00" shape="3282.061305,2138.970155 3277.201835,2130.975620 3265.859101,2137.806510 3270.728555,2145.790137 3282.061305,2138.970155"/>
    <poly id="1304972545" type="building" color="255,230,230" fill="1" layer="-1.00" shape="3273.103688,2122.529485 3262.017574,2129.232071 3266.830220,2137.114868 3277.916329,2130.412286 3273.103688,2122.529485"/>
    <poly id="1304973389" type="building" color="255,230,230" fill="1" layer="-1.00" shape="3254.474131,2110.345147 3259.190908,2117.594222 3262.070850,2115.740413 3259.056325,2111.105960 3259.689545,2110.707428 3257.987294,2108.092804 3254.474131,2110.345147"/>
    <poly id="1304974776" type="building" color="255,230,230" fill="1" layer="-1.00" shape="3277.220911,2120.399160 3287.990496,2114.422477 3283.967209,2107.219442 3273.188049,2113.184865 3277.220911,2120.399160"/>
    <poly id="1304976007" type="building" color="255,230,230" fill="1" layer="-1.00" shape="3328.650818,2147.900893 3332.665366,2138.085533 3321.502466,2133.577884 3317.488131,2143.382164 3328.650818,2147.900893"/>
    <poly id="1304980898" type="building" color="255,230,230" fill="1" layer="-1.00" shape="3051.932620,1598.415094 3041.048242,1604.766854 3049.934402,1619.820111 3060.818772,1613.468360 3051.932620,1598.415094"/>