<?xml version="1.0" encoding="UTF-8"?>

<!-- generated on 2025-08-01 16:58:08 by Eclipse SUMO duarouter Version 1.22.0
<duarouterConfiguration xmlns:xsi="http://www.w3.org/2001/XMLSchema-instance" xsi:noNamespaceSchemaLocation="http://sumo.dlr.de/xsd/duarouterConfiguration.xsd">

    <input>
        <net-file value="Delhi2.net.xml"/>
        <route-files value="Delhi2.trips.xml"/>
    </input>

    <output>
        <output-file value="Delhi2.rou.xml"/>
    </output>

</duarouterConfiguration>
-->

<routes xmlns:xsi="http://www.w3.org/2001/XMLSchema-instance" xsi:noNamespaceSchemaLocation="http://sumo.dlr.de/xsd/routes_file.xsd">
    <vehicle id="0" depart="0.00">
        <route edges="293429095#1 -293429095#1 77885887#9 77885887#10 -80932785#19 -80932785#18 -80932785#17 -80932785#16 -80932785#14 -80932785#13 -80932785#12 -80932785#11 -80932785#10 -80932785#9 -80932785#8 -1074555573#4 -1074555575"/>
    </vehicle>
    <vehicle id="1" depart="1.00">
        <route edges="-637932576#0 -637932574#0 637932573#1 -637935321 637935320#1 637929826#3 637929826#4 77881922#5 77881922#6 77881922#7 77881922#8 77881922#10 83588199#23 637913871#0 -1077598888#4 -1077598888#3 -1077598888#2 -1077598888#1 -1077598888#0 -637906617#24 -637906617#23 -637906617#22 -637906617#21 -637906617#20 -637906617#19 -637906617#18 -637906617#17 -637906617#15 -637906617#14 -637906617#13 -637906617#12 -637906617#11"/>
    </vehicle>
    <vehicle id="2" depart="2.00">
        <route edges="570217340#9 570217340#10 570217340#11 570217340#12 570217340#13 570217340#14 570217340#15 570217340#17 570217340#18 570217340#19 570217340#20 570217340#21 570217340#22 570217340#23 570217340#24 570217340#25 570217340#26 77885887#8 -80932740#17 -80932740#15 -80932740#13 -80932740#11 -80932740#10 -80932740#9 -80932740#8 -80932740#7 -80932740#6 -80932740#5 -80932740#4 -80932740#3 -80932740#2 -80932740#1 -80932740#0 77882060#9 77882060#10 1275486094#1 1275486094#2 1275486094#3 754398381#0 754398381#1 754398381#2 1155810087 1155810089 1155810085 1155810086#0 1155810086#1 171505924#3 1161756185#0 1161756185#2 1161756185#3 982296047#0 982296047#1 982296047#2 982296047#3 708804791#0 708804791#1 -265817836#1 -423601510#2 -423601510#1 423601510#1"/>
    </vehicle>
    <vehicle id="3" depart="3.00">
        <route edges="77881961#7 -77881961#7 -77881961#6 -77881961#5 -77881961#4 -77881961#2 -77881961#1 -77881961#0 1214752980 77882082#2 982296047#0 982296047#1 982296047#2 982296047#3 708804791#0 610043970#2 610043967#0 610043967#1 754398388 610043969#3 754398384#1 754398384#3 1155810083 1155810082 1155810080 1155810081#0 1155810081#1 1155810081#3 464265872#0 464265872#1 80940714#2 80940714#3 80940714#4 80940714#5 993810848#1 -682843933#4 -682843933#3 -682843933#1 -682843933#0 -123406194#11 -123406194#10 -123406194#9 -123406194#8"/>
    </vehicle>
    <vehicle id="4" depart="4.00">
        <route edges="-993813227#3 -993813227#2 1239818071 1190970208#1 749606311#0 749606311#1 749606311#2 749606311#3 749606311#4 749606311#5 749606311#6 749606311#7 749606311#8 749606311#9 763026392 1136391402 610043966 1136391403#0 1077602336#0 1077602336#1 1077602336#2 1077602337 -1077602335#2 123406194#0 123406194#1 123406194#2 123406194#3 123406194#4 123406194#5 123406194#6 123406194#7 696585749#0 -1076297721"/>
    </vehicle>
    <vehicle id="5" depart="5.00">
        <route edges="-44610937#3 -44610937#2 -44610937#1 -44610937#0 -264592551#4 -264592551#3 -264592551#2 264592553#2 264592553#0 264592548#0 264592548#2 264592548#3 264592548#6 264592548#7 264592548#8 264592548#10 264592548#11 264592548#12 264592548#14 264592548#15 264592548#17 264592548#18 264592548#19 264592548#20 264592548#21 264599028#0 264599028#2 264599028#3 -44923693#1 -44923693#0 44611072#1 44611072#2 38235141#1 38235141#2 38235230#1 38235230#2 38235230#3 38235230#4 38235230#5 38235230#6 38235230#7 38235230#8 38235230#10 1077602335#0 1077602335#2 1077602335#4 293531614#1 293531614#2 293531614#3 1136391403#2"/>
    </vehicle>
    <vehicle id="6" depart="6.00">
        <route edges="-1074555574#1 -1074555574#0 -80932785#5 -80932785#3 -80932785#0 754398379#0 754398379#1 754398379#2 754398379#3 1275486094#3 1275486094#4 1275486094#5 1275486094#7 171505923#0 80940714#0 80940714#1 80940714#2 80940714#3 80940714#4 80940714#5 80940714#6 80940714#7 80940714#8 80940714#9 80940714#10 265816723#1 265816723#2 265816723#3 265816723#4 265816723#5 -77595123#1 -44611072#1 44923693#0 44923693#1 -264599028#3 -264599028#2 -264599028#0 -264592548#21 -264592548#20 -264592548#19 -264592548#18 -264592548#17 -264592548#15 -264592548#14 -264592548#12 -264592548#11 -264592548#10 -264592548#9 -264592548#7 -264592548#6 -264592548#4 -264592548#2 -264592548#1 264592553#1 -44141517#7 -44141517#6 -44141517#5 -44141517#4 -44141517#3"/>
    </vehicle>
    <vehicle id="8" depart="8.00">
        <route edges="-44923693#0 44611072#1 44611072#2 38235141#1 38235141#2 38235230#1 38235230#2 38235230#3 38235230#4 38235230#5 38235230#6 38235230#7 38235230#8 38235230#10 1077602335#0 1077602335#2 1077879834 1077642221#0 1077642221#1 38235545#1 77885899#4 77885899#5 -169081161#1 -169081161#0 169081155#0"/>
    </vehicle>
    <vehicle id="9" depart="9.00">
        <route edges="693912721#0 693912721#2 693912719#1 693912719#3 693912726#0 693912726#1 80940694#15 44141357#2 44141357#3 264615172#2 360271994#0 360271994#1 360271994#2 360271994#3 360271994#4 604050024#1 604050024#2 604050024#2-AddedOffRampEdge 77617237 77617230#1 604050030#2 604050030#3 77617187#0 77617187#1 77617187#2 77617187#3 77617169#0 77617169#1 77617169#2 77617169#3 658051950#1 585446281#0 585446281#4 605840586 605840543#0 649207252 70214098#16 151707206#0 151707206#1 151707206#2 151707206#3 151707206#4 151707206#5 151707206#6 1125128431 151707204#7 151707204#8 294217966#0 294217966#1 1121161646 -1067862446#0 -1067862446#1"/>
    </vehicle>
    <vehicle id="10" depart="10.00">
        <route edges="682843933#5 -682843933#5 -993810848#1 80940714#6 80940714#7 80940714#8 80940714#9 80940714#10 265816723#1 265816723#2 265816723#3 265816723#4 265816723#5 -77595123#1 -44611072#1 44923693#0 44923693#1 44923693#2 44923693#3 44923693#4 44141435#7 80940694#0 80940694#1 80940694#3 80940694#4 80940694#5 44141299#1"/>
    </vehicle>
    <vehicle id="11" depart="11.00">
        <route edges="-744801991 798855531#2 798855529#3 82946119#3 -1364873685#7 -82946131#2 -82946131#1 -82946131#0 44141357#6 44141357#8 44141357#11 44141357#12 44141357#13 44141357#14 44141357#18 -44141435#7 -44923693#5 -44923693#3 -44923693#2 -44923693#1 -44923693#0 744248532#3 744248532#4 -320348707#0"/>
    </vehicle>
    <vehicle id="12" depart="12.00">
        <route edges="993810164 993810165#2 993810165#3 993810163#3 80940714#1 80940714#2 80940714#3 80940714#4 80940714#5 80940714#6 80940714#7 80940714#8 80940714#9 80940714#10 265816723#1 265816723#2 265816723#3 265816723#4 265816723#5 -77595123#1 -44611072#1 44923693#0 44923693#1 -264599028#3 -264599028#2 -264599028#0 -264592548#21 -264592548#20 -264592548#19 -264592548#18 -264592548#17 -264592548#15 -264592548#14 -264592548#12 -264592548#11 -264592548#10 -264592548#9 -264592548#7 -264592548#6 -264592548#4 -264592548#2 -264592548#1 264592553#1 264592551#1 264592551#3 264592551#4 264592551#5 264592551#6 264592551#7 -293420639#3 -293420639#2 -293420639#1 -1076803631 -798855522#0"/>
    </vehicle>
    <vehicle id="13" depart="13.00">
        <route edges="-1204891661#3 1204891661#3 1204891661#4 610043965#2 610043965#3 610043965#4 610043965#5 610043965#6 610043965#7 259081351#2 259081351#3 259081351#4 259081351#5 259081351#6 259081351#7 259081351#8 259081351#9 259081351#10 259081351#11 259081351#12 259081351#13 259081351#14 259081351#15 259081351#16 259081351#17 259081351#18 259081351#19 259081351#20 259081351#21 259081351#22 259081351#23 259081351#24 259081351#25 763026392 1136391402 610043966 1136391403#0 1077602336#0 1077602336#1 1077602336#2 1077602337 -1077602335#2 -1077602335#0 -38235230#10 1040474246#0 1040474246#1 -1067862410#0 1040474247 38235532#2 1042966623#0 1042966623#2 993538746 -1341777738#0 -1341777737#4"/>
    </vehicle>
    <vehicle id="14" depart="14.00">
        <route edges="708389467#1 -708389467#1 290560433#4 290560433#5 290560433#6 290560433#7 290560433#8 290560433#9 290560433#10 290560433#11 1161756187 1161756185#0 1161756185#2 1161756185#3 982296047#0 982296047#1 982296047#2 982296047#3 982296047#4 982296047#5 982296047#6 982296047#7 982296047#8 70214098#0 70214098#1 70214098#2 70214098#2-AddedOffRampEdge 70214098#3 70214098#5 70214098#6-AddedOnRampEdge 70214098#6 70214098#8 70214098#9 70214098#12 70214098#13-AddedOnRampEdge 70214098#13 70214098#16 605840590 605840588#0 605840585-AddedOnRampEdge 605840585 605840585-AddedOffRampEdge 77617183#0 77617183#2 1413413918#0 1413413918#1 1413413918#2 1413413918#3 1413413918#4 202830265#7 202830265#8-AddedOnRampEdge 202830265#8"/>
    </vehicle>
    <vehicle id="15" depart="15.00">
        <route edges="693912717#1 693912717#2 693912723#0 693912724 693912726#0 693912726#1 80940694#15 44141357#2 44141357#3 44141357#4 44141357#5 44141357#6 44141357#8 44141357#11 44141357#12 44141357#13 44141357#14 44141357#18 -44141435#7 -44923693#5 -44923693#3 -44923693#2 -44923693#1 -44923693#0 44611072#1 44611072#2 38235141#1 38235141#2 38235230#1 38235230#2 38235230#3 38235230#4 38235230#5 38235230#6 38235230#7 38235230#8 38235230#10 1077602335#0 1077602335#2 1077879834 1077642221#0 1077642221#1 38235545#1 77766232#6 77766232#7 77885913#1 77885887#0 77885887#1 77885887#2 77885887#3 77885887#6 77885887#7 -570217340#26 -570217340#25 -570217340#24 -570217340#23 -570217340#22 -570217340#21 -570217340#20 -570217340#19 -570217340#18 -570217340#17 -570217340#16 -570217340#14 -570217340#13 -570217340#12 -570217340#11 -570217340#10 -570217340#9 -570217340#8 -570217340#7 -570217340#6 570217340#6"/>
    </vehicle>
    <vehicle id="16" depart="16.00">
        <route edges="1204655323#1 -1204655323#1 77619363#0 77619363#1 77619363#2 77619363#3 77619363#4 77619363#5 1155810080 1155810081#0 1155810081#1 1155810081#3 1155810081#4 1155810081#5 1275486094#7 171505923#0 171505923#1 171505923#2 171505923#3 1312778057#0 1312778057#1 1312778057#4 1312778057#5 1136391403#0 1136391403#1 1136391403#2 77885886 1136391404 1136391402 77882060#0 77882060#1 77882060#2 77882060#3 77882060#5 77882060#7 77882060#8 80932740#0 993811689"/>
    </vehicle>
    <vehicle id="17" depart="17.00">
        <route edges="-80940714#9 80940714#9 80940714#10 265816723#1 265816723#2 265816723#3 265816723#4 265816723#5 -77595123#1 -44611072#1 44923693#0 44923693#1 44923693#2 44923693#3 44923693#4 -44141435#6 -44141435#5 -44141435#4 -44141435#3 -44141435#2 -44141435#1 77617205#1 77617205#2 127661012#3 127661012#5 127661012#6 127661012#7 127661012#8"/>
    </vehicle>
    <vehicle id="18" depart="18.00">
        <route edges="696810078#2 1077642220#1 -1067102270#5 -1067102270#4 -1067102270#3 -1067102270#2 -1067102270#1 -1067102270#0 1387169685#11 -38235230#10 -38235230#8 -38235230#7 -38235230#6 -38235230#5 -38235230#4 -38235230#3 -38235230#2 -38235230#1 38235166#7 38235166#8 38235166#9 38235166#10 38235166#11 -77595123#1 -44611072#1 44141522#0 44141522#1 44141522#2 44141522#3 264592555#1 264592555#2"/>
    </vehicle>
    <vehicle id="20" depart="20.00">
        <route edges="44141357#2 44141357#3 44141357#4 44141357#5 44141357#6 44141357#8 44141357#11 44141357#12 44141357#13 44141357#14 44141357#18 -44141435#7 -44923693#5 -44923693#3 -44923693#2 -44923693#1 -44923693#0 44611072#1 44611072#2 -265816723#5 -265816723#4 -265816723#3 -265816723#2 -265816723#1 -80940714#10 -80940714#9 -80940714#8 -80940714#7 -80940714#6 -80940714#5 -80940714#4 -80940714#3 -80940714#2 -80940714#1 -80940714#0 171505923#1 171505923#2 -681794420#5 -1077615907"/>
    </vehicle>
    <vehicle id="21" depart="21.00">
        <route edges="-48532953#15 48532953#15 44141357#1 44141357#2 44141357#3 264615172#2 360271994#0 360271994#1 360271994#2 360271994#3 360271994#4 604050024#1 604050024#2 604050024#2-AddedOffRampEdge 77617237 77617230#1 604050030#2 604050030#3 77617187#0 77617187#1 77617187#2 77617187#3 77617169#0 77617169#1 77617169#2 77617169#3 658051950#1 585446281#0 585446281#4 605840586 605840543#0 649207252 70214098#16 151707206#0 696590103#0 -696590103#0"/>
    </vehicle>
    <vehicle id="22" depart="22.00">
        <route edges="-1182164161 80940711#4 80940711#5 80940711#6 80940711#7 80940711#8 80940711#9 80940711#10 80940711#11 80940711#12 80940711#12-AddedOffRampEdge 80940711#13 80940711#14 77619363#0 77619363#1 77619363#2 77619363#3 77619363#4 77619363#5 77769986 1155810088#0 1155810088#2 1155810088#3 1155810088#4 83588199#23 637913871#0 -1077598888#4 -1077598888#3 -1077598888#2 -1077598888#1 -1077598888#0 -637906617#24 -637906617#23 -637906617#22 -637906617#21 -637906617#20 -637906617#19 -637906617#18 -637906617#17 -637906617#15 -637906617#14 -637906617#13 -637906617#12 637906671#0 637906671#1 637906671#2 -637906657#1"/>
    </vehicle>
    <vehicle id="23" depart="23.00">
        <route edges="-123406194#7 123406194#7 696585749#0 696585749#2 696585749#3 696585749#4 696585749#5 293531615#2 293531615#3 293531615#4 293531615#5 265816723#1 265816723#2 265816723#3 265816723#4 265816723#5 -77595123#1 -44611072#1 44923693#0 44923693#1 44923693#2 44923693#3 44923693#4 44141435#7 80940694#0 80940694#1 80940694#3 80940694#4 80940694#5 80940694#6 80940694#7 80940694#9 80940694#13 80940694#14 -693912726#1 -693912726#0 -693912719#3 -693912718#2"/>
    </vehicle>
    <vehicle id="24" depart="24.00">
        <route edges="293158430#3 423086303#0 423086303#2 265816723#3 265816723#4 265816723#5 -77595123#1 -44611072#1 44923693#0 44923693#1 44923693#2 44923693#3 44923693#4 44141435#7 80940694#0 80940694#1 80940694#3 80940694#4 80940694#5 80940694#6 80940694#7 80940694#9 80940694#13 80940694#14 80940694#15 44830358#1 44830358#2 44830358#3 44830358#4 44830358#5 -82710780#1 -82710780#0"/>
    </vehicle>
    <vehicle id="25" depart="25.00">
        <route edges="-80936829#10 80936829#10 80936829#11 1202697881 1202697879 1202697880#0 1202697880#1 1202697880#2 1202697880#3 1351752012#0 -293429095#6 -293429095#5 -293429095#4 -293429095#3 -293429095#2 -293429095#1 -80932740#17 -80932740#15 -80932740#13 -80932740#11 -80932740#10 -80932740#9 -80932740#8 -80932740#7 -80932740#6 -80932740#5 -80932740#4 -80932740#3 -80932740#2 -80932740#1 -80932740#0 77882060#9 77882060#10 1275486094#1 1275486094#2 1275486094#3 754398381#0 754398381#1 754398381#2 1155810087 1155810089 1155810084 77882058#0 77882058#1 77882058#2 77619352#0 77619352#1 77595114 77595121 77619373#1 77619373#2 77619373#3 77619373#4 77619373#5 77619370#0 77619370#1 77619370#2 48532699#0 -48532699#0"/>
    </vehicle>
    <vehicle id="27" depart="27.00">
        <route edges="293531615#0 1066695023#7 1066695023#8 1066695023#9 1066695023#10 1077602335#0 1077602335#2 1077879834 1077642221#0 1077642221#1 38235545#1 77766232#6 77766232#7 77885913#1 77885887#0 77885887#1 77885887#2 77885887#3 1072904848#1 1072904848#2 259081351#17 259081351#18"/>
    </vehicle>
    <vehicle id="28" depart="28.00">
        <route edges="-320348713#0 320348699 80940711#7 80940711#8 80940711#9 80940711#10 80940711#11 80940711#12 80940711#12-AddedOffRampEdge 80940711#13 80940711#14 77619363#0 77619363#1 77619363#2 77619363#3 77619363#4 77619363#5 1155810080 1155810081#0 1155810081#1 1155810081#3 1155810081#4 1155810081#5 1275486094#7 171505923#0 171505923#1 171505923#2 171505923#3 1312778057#0 1312778057#1 1312778057#4 1312778057#5 1136391403#0 1136391403#1 1136391403#2 77885901#0 77885913#1 77885887#0 77885887#1 77885887#2 77885887#3 77885887#6 77885887#7 -570217340#26 -570217340#25 -570217340#24 -570217340#23 -570217340#22 -570217340#21 -570217340#20 -570217340#19 -570217340#18 -570217340#17 -570217340#16 -570217340#14 -570217340#13 -570217340#12 -570217340#11 -570217340#10 -570217340#9 -570217340#8 -570217340#7 -570217340#6 -570217340#5 -570217340#4 -570217340#3 570217340#3"/>
    </vehicle>
    <vehicle id="29" depart="29.00">
        <route edges="-293429098#24 -293429098#23 -293429098#22 -293429098#21 -293429098#19 -293429098#18 -293429098#17 -293429098#16 -293429098#15 -293429098#14 -293429098#13 -293429098#12 -293429098#11 -293429098#10 -293429098#9 -293429098#8 -293429098#7 -293429098#6 -293429098#5 -293429098#4 -293429098#3 -293429098#1 -293429095#6 -293429095#5 -293429095#4 -293429095#3 -293429095#2 -293429095#1 749606311#8 749606311#9 763026392 1136391402 610043966 1136391403#0 1077602336#0 1077602336#1 1077602336#2 1077602337 -1077602335#2 -1077602335#0 1067102275#0 1067102275#1 1067102275#2 1067102275#3 293531615#0 -696585749#5 -696585749#4 -993810835#3"/>
    </vehicle>
    <vehicle id="30" depart="30.00">
        <route edges="993815607#1 993815608#1 754398384#3 1155810083 1155810082 1155810080 1155810081#0 1155810081#1 1155810081#3 1155810081#4 1155810081#5 1275486094#7 171505923#0 171505923#1 171505923#2 171505923#3 1312778057#0 1312778057#1 1312778057#4 1312778057#5 1136391403#0 1136391403#1 1136391403#2 77885901#0 77885913#1 77885887#0 77885887#1 77885887#2 77885887#3 77885887#6 77885887#7 77885887#8 293429095#1 293429095#2 293429095#3 293429095#4 293429095#5 293429095#6 293429098#1 293429098#3 293429098#4 293429098#5 293429098#6 293429098#7 293429098#8 293429098#9 293429098#10 293429098#11 293429098#12 293429098#13 293429098#14 293429098#15"/>
    </vehicle>
    <vehicle id="31" depart="31.00">
        <route edges="1306130145#1 -1306130145#1 -1306130144 1413413918#1 1413413918#2 1413413918#3 1413413918#4 1381127158#0 1381127158#1 1381127158#2 1381127158#3 1381127158#4 1381127158#5 151707196#1 151707196#2 151707196#3 -151707204#9 -151707204#8 -151707204#7 -151707204#6 -151707204#5 -151707204#4 -151707204#3 -151707204#2 570896882#7 570896882#8 570896882#9 570896882#10 570896882#11 982296042#0 982296042#1 585446282 610043970#1 610043970#2 610043967#0 610043967#1 610043968#0 1161756185#2 77882024#0 77882024#1 77882024#3 77882024#4 993815618 423628328#2"/>
    </vehicle>
    <vehicle id="32" depart="32.00">
        <route edges="705710681#4 -705710678 705710680#4 705710677#5 77882060#5 77882060#7 77882060#8 77882060#9 77882060#10 1275486094#1 1275486094#2 1275486094#3 754398381#0 754398381#1 754398381#2 1155810087 1155810088#0 1155810088#2 1155810088#3 1155810088#4 83588199#23 637913871#0 -1077598888#4 -1077598888#3 -1077598888#2 -1077598888#1 -1077598888#0 -637906617#24 -637906617#23 -637906617#22 -637906617#21 -637906617#20 -637906617#19 -637906617#18 -637906617#17 -637906617#15 -637906617#14 -637906617#13 -637906617#12 -637906617#11 -637906617#10 -637906617#9 -637906617#8 -637906617#7 -637906617#6 -637906617#5 -637906617#4 -637906617#3 -637906617#2 -637906617#1 151707201#1 -637920447#1 -637920447#0 637920445#7 637920449"/>
    </vehicle>
    <vehicle id="33" depart="33.00">
        <route edges="-48532953#7 48532953#7 48532953#8 48532953#9 48532953#10 48532953#11 48532953#12 48532953#13 48532953#14 48532953#15 44141357#1 44141357#2 44141357#3 44141357#4 44141357#5 44141357#6 44141357#8 44141357#11 44141357#12 44141357#13 44141357#14 44141357#18 -44141435#7 -44923693#5 -44923693#3 -44923693#2 -44923693#1 -44923693#0 44611072#1 44611072#2 38235141#1 1076301076#1 1076301076#2 -1076301076#2"/>
    </vehicle>
    <vehicle id="34" depart="34.00">
        <route edges="-698605275#3 80932785#18 80932785#19 749606311#5 749606311#6 749606311#7 -80932740#17 -80932740#15 -80932740#13 -80932740#11 -80932740#10 -80932740#9 -80932740#8 -80932740#7 -80932740#6 -80932740#5 -80932740#4 -80932740#3 -80932740#2 -80932740#1 -80932740#0 77882060#9 -1039231146 80940714#0 80940714#1 80940714#2 80940714#3 80940714#4 80940714#5 80940714#6 80940714#7 80940714#8 80940714#9 80940714#10 265816723#1 265816723#2 265816723#3 265816723#4 265816723#5 -77595123#1 -44611072#1 44923693#0 44923693#1 -264599028#3 -264599028#2 -264599028#0 -264592548#21 -264592548#20 -264592548#19 -264592548#18 -264592548#17 -264592548#15 -264592548#14 -264592548#12 -264592548#11 -264592548#10 -264592548#9 -264592548#7 -264592548#6 -264592548#4 -264592548#2 -264592548#1 264592553#1 264592551#1 264592551#3 264592551#4 264592551#5 264592551#6 264592551#7 264592551#8 264592551#9 264592551#10 1077916785#1 -658868906#4 -658868906#3"/>
    </vehicle>
    <vehicle id="35" depart="35.00">
        <route edges="-44141299#9 82946100#0 82946100#1 82946100#2"/>
    </vehicle>
    <vehicle id="36" depart="36.00">
        <route edges="77617136#0 -77617136#0 1322127316 1125152472 1322127315#0 1322127315#1 -77619370#4 -77619370#3 -77619370#2 -77619370#1 -77619370#0 77619348 706609567#0 706609567#1 706609567#2 706609567#3 706609567#4 706609567#5 706609567#6 264615171#0 80940711#11 80940711#12 80940711#12-AddedOffRampEdge 80940711#13 1204655324 77619354 -265816723#5 -265816723#4 -265816723#3 -265816723#2 -265816723#1 -80940714#10 -80940714#9 714986203#0 714986202#2 -714986202#2"/>
    </vehicle>
    <vehicle id="37" depart="37.00">
        <route edges="320348707#0 744248532#5 744248532#6 744248532#7 744248532#8 80940711#12 80940711#12-AddedOffRampEdge 80940711#13 80940711#14 77619363#0 77619363#1 77619363#2 77619363#3 77619363#4 77619363#5 1155810080 1155810081#0 1155810081#1 1155810081#3 1155810081#4 1155810081#5 1275486094#7 1275486094#8 1275486094#1 754398378 1077601539#1 1077601539#2 1077601539#3 1077601539#4 1077601539#5 80932785#0 80932785#1 80932785#5 80932785#6 80932785#7 80932785#8 80932785#9 80932785#10 80932785#11 80932785#12 80932785#13 80932785#14 80932785#16 80932785#17 80932785#18 80932785#19 1077640740#1 1077640740#2 1077640740#3 1077640740#4 1077640740#5 1077640740#6 1077640740#8 77885904#6 1308869806#1 1308869806#2 1308869806#3 1308869806#4 1202697878#0 -1191968488#1 -993812339"/>
    </vehicle>
    <vehicle id="38" depart="38.00">
        <route edges="80932757#19 80932757#20 80932757#21 80932757#22 80932757#23 80932757#24 -1308869805#1 -293429098#7 -293429098#6 -293429098#5 -293429098#4 -293429098#3 -293429098#1 -293429095#6 -293429095#5 -293429095#4 -293429095#3 -293429095#2 -293429095#1 -80932740#17 -80932740#15 -80932740#13 -80932740#11 -80932740#10 -80932740#9 -80932740#8 -80932740#7 -80932740#6 -80932740#5 -80932740#4 -80932740#3 -80932740#2 -80932740#1 -80932740#0 77882060#9 77882060#10 1275486094#1 1275486094#2 1275486094#3 754398381#0 754398381#1 754398381#2 1155810087 1155810089 1155810085 1155810086#0 1155810086#1 171505924#3 1161756185#0 1161756185#2 77882024#0 77882024#1 77882024#3 77882024#4 77881961#0 77881961#1 77881961#2 77881961#4 77881961#5 77881961#6 77881961#7 77881961#8 77881961#9 77881961#10 -1075772728 -1075772727#0 1067862434#2 993816877#0 1076503662#1"/>
    </vehicle>
    <vehicle id="39" depart="39.00">
        <route edges="-637912722#3 -1077598888#3 -1077598888#2 -1077598888#1 -1077598888#0 -637906617#24 -637906617#23 -637906617#22 -637906617#21 -637906617#20 -637906617#19 -637906617#18 -637906617#17 -637910626#8 -637910626#7 -637910626#6 -637910625#3"/>
    </vehicle>
    <vehicle id="40" depart="40.00">
        <route edges="1308869805#0 -293429098#7 -293429098#6 -293429098#5 -293429098#4 -293429098#3 -293429098#1 -293429095#6 -293429095#5 -293429095#4 -293429095#3 -293429095#2 -293429095#1 -80932740#17 -80932740#15 -80932740#13 -80932740#11 -80932740#10 -80932740#9 -80932740#8 -80932740#7 -80932740#6 -80932740#5 -80932740#4 -80932740#3 -80932740#2 -80932740#1 -80932740#0 77882060#9 77882060#10 1275486094#1 1275486094#2 1275486094#3 754398381#0 754398381#1 754398381#2 1155810087 1155810088#0 1155810088#2 1155810088#3 1155810088#4 1155810088#6 1155810088#7 1155810088#8 -637935327#1 -637935327#0 -151707350#8 -151707350#6 -151707350#5 -151707350#3 637962965#0 637962965#1 -637962965#1"/>
    </vehicle>
    <vehicle id="41" depart="41.00">
        <route edges="151707206#1 -605958424#3 -605958424#2 570896882#0 570896882#1-AddedOnRampEdge 570896882#1 570896882#4 570896882#7 570896882#8 570896882#9 570896882#10 570896882#11 1272695735 708804798#1-AddedOnRampEdge 708804798#1 708804798#1-AddedOffRampEdge 708804798#2 1312778057#0 1312778057#1 1312778057#4 1312778057#5 1136391403#0 1136391403#1 1136391403#2 77885901#0 77885913#1 77885887#0 77885887#1 77885887#2 77885887#3 77885887#6"/>
    </vehicle>
    <vehicle id="42" depart="42.00">
        <route edges="-993810845#0 993810845#0 993810845#1 714986204#0 714986204#1 1217718099#3 1217718099#4 1217718098#0 1217718098#1 1217718098#2 1217718098#4 1217718098#5 1217718098#6 1217718098#7 1155810081#4 1155810081#5 1275486094#7 171505923#0 171505923#1 171505923#2 171505923#3 1312778057#0 1312778057#1 1312778057#4 1312778057#5 1136391403#0 1136391403#1 1136391403#2 77885901#0 77885913#1 77885887#0 77885887#1 77885887#2 77885887#3 77885887#6 77885887#7 -570217340#26 -570217340#25 -570217340#24 -570217340#23 -570217340#22 -570217340#21 -570217340#20 -570217340#19"/>
    </vehicle>
    <vehicle id="43" depart="43.00">
        <route edges="993816876 -993816876 -1067862434#4 -1067862434#2 1075772727#0 1075772728 -77881961#10 -77881961#9 -77881961#8 -77881961#7 -77881961#6 -77881961#5 -77881961#4 -77881961#2 -77881961#1 -77881961#0 1214752980 77882082#2 982296047#0 982296047#1 982296047#2 982296047#3 708804791#0 708804791#1 -265817836#1 -265817836#0 77619373#0 77619373#1 77619373#2 77619373#3 77619373#4 77619373#5 77619348 77617205#0 77617205#1 77617205#2 127661012#3 127661012#5 127661012#6 127661012#7 127661012#8 127661012#9 80940694#7 80940694#9 80940694#13 -44141125#5 798855524#0 1150383463"/>
    </vehicle>
    <vehicle id="44" depart="44.00">
        <route edges="-1202697880#1 1202697880#1 1202697880#2 1202697880#3 1351752012#0 -293429095#6 -293429095#5 -293429095#4 -293429095#3 -293429095#2 -293429095#1 77885887#9 77885887#10 77885887#11 77885887#12 1077630447#0 -1077630447#0"/>
    </vehicle>
    <vehicle id="45" depart="45.00">
        <route edges="-1307714147 -681813531#0 1159383407#8 1159383407#9 1312848473#0 1312848473#1 1312848473#2 1312848473#3 290559814#0 290559814#1 290559814#2 290559814#3 290559814#4"/>
    </vehicle>
    <vehicle id="46" depart="46.00">
        <route edges="637962975#0 637962975#1 -151707349#2 -151707349#1 -151707349#0 -151707351#3 -151707351#2 -151707351#1 -151707351#0 -637935323#1 637929822#0 637929822#1 1077640735#1 637929824 77881922#10 83588199#23 83588199#24 83588199#25 83588199#26 1155810084 1155810082 1155810080 1155810081#0 1155810081#1 1155810081#3 -1217718098#7 -1217718098#6 -1217718098#5 -1217718098#4 -1217718098#2 -1217718098#1 -1217718098#0 1217718097#1 1217718097#2 1066695023#0 1066695023#1 1066695023#2 1066695023#3 1066695023#4 1066695023#5 1066695023#7 1066695023#8 1066695023#9 1066695023#10 1067094706#0 1067094706#1 1067094706#2 1067094706#3 1067094706#4 1067094706#5 1067094706#6 1067094706#7 1067094706#8 1067094706#9 1067094706#10 1067094706#11 1067094705"/>
    </vehicle>
    <vehicle id="47" depart="47.00">
        <route edges="-1079742371 1079742367#0 1079742367#1 -44141545#11 -44141545#10 -44141545#8 -44141545#7 -44141545#6 -44141545#5 -44141545#4 -44141545#3 -44141545#2 44141357#14 44141357#18 -44141435#7 -44923693#5 -44923693#3 -44923693#2 -44923693#1 -44923693#0 44611072#1 44611072#2 -265816723#5 -265816723#4 -265816723#3 -265816723#2 -265816723#1 1066695023#2 1066695023#3 -1076060582#3 -1076060582#2 -696585751#7 -993810840#0"/>
    </vehicle>
    <vehicle id="48" depart="48.00">
        <route edges="993816866#1 993816866#2 1159383407#9 1312848473#0 290560433#4 290560433#5 290560433#6 290560433#7 290560433#8 290560433#9 290560433#10 290560433#11 1161756186#0 610043969#3 754398384#1 754398384#3 1155810083 1155810082 77769986 1155810088#0 1155810088#2 1155810088#3 1155810088#4 1155810088#6 1155810088#7 1155810088#8 1155810088#9 1155810088#10 -637962973 -637962972 993815602#1 1200769419"/>
    </vehicle>
    <vehicle id="49" depart="49.00">
        <route edges="993810866 -993810866 -80932740#9 -80932740#8 -80932740#7 -80932740#6 -80932740#5 -80932740#4 -80932740#3 -80932740#2 -80932740#1 -80932740#0 77882060#9 -1039231146 80940714#0 80940714#1 80940714#2 80940714#3 80940714#4 80940714#5 80940714#6 80940714#7 80940714#8 80940714#9 80940714#10 265816723#1 265816723#2 265816723#3 265816723#4 265816723#5 -77595123#1 -44611072#1 44923693#0 44923693#1 -264599028#3 -264599028#2 -264599028#0 -264592548#21 -264592548#20 -264592548#19 -264592548#18 -264592548#17 -264592548#15 -264592548#14 -264592548#12 -264592548#11 -264592548#10 -264592548#9 -264592548#7 -264592548#6 721594684#0 721594684#1 721594685#1"/>
    </vehicle>
    <vehicle id="50" depart="50.00">
        <route edges="-1070560848#3 -1070560848#1 1070575146#2 -1070560849#0 -176492662#0 48532953#0"/>
    </vehicle>
    <vehicle id="51" depart="51.00">
        <route edges="423601515#1 464312301#1 464312302 -1076301076#1 38235166#9 38235166#10 38235166#11 38235166#12 80940702#0 80940702#1 80940702#3 80940702#4 1217718099#2 1217718099#3 1217718099#4 1217718098#0 1217718098#1 1217718098#2 1217718098#4 1217718098#5 1217718098#6 1217718098#7"/>
    </vehicle>
    <vehicle id="53" depart="53.00">
        <route edges="-1308869805#1 -293429098#7 -293429098#6 -293429098#5 -293429098#4 -293429098#3 -293429098#1 -293429095#6 -293429095#5 -293429095#4 -293429095#3 -293429095#2 -293429095#1 -80932740#17 -80932740#15 -80932740#13 -80932740#11 -80932740#10 -80932740#9 -80932740#8 -80932740#7 -80932740#6 -80932740#5 -80932740#4 -80932740#3 -80932740#2 -80932740#1 -80932740#0 77882060#9 77882060#10 1275486094#1 1275486094#2 1275486094#3 754398381#0 754398381#1 754398381#2 1155810087 1155810089 1155810084 77882058#0 77882058#1 77882058#2 77619352#0 77619352#1 77595114 77595121 77619373#1 77619373#2 77619373#3 77619373#4 77619373#5 77619348 77617205#0 77617205#1 77617205#2 77617205#5 77617205#7 44830355#1 -176492662#2 -1070560848#7 1070560846 -1070560848#1 1070575146#2 1070560849#1"/>
    </vehicle>
    <vehicle id="54" depart="54.00">